Version 4
SHEET 1 1956 900
WIRE -240 -224 -288 -224
WIRE 32 -224 -160 -224
WIRE 96 -224 32 -224
WIRE 320 -224 272 -224
WIRE 592 -224 400 -224
WIRE 720 -224 592 -224
WIRE 864 -224 800 -224
WIRE 896 -224 864 -224
WIRE 992 -224 960 -224
WIRE 592 -160 592 -224
WIRE 864 -160 864 -224
WIRE 992 -160 992 -224
WIRE -288 -144 -288 -224
WIRE 96 -144 96 -224
WIRE 272 -144 272 -224
WIRE 32 -128 32 -224
WIRE -288 -16 -288 -64
WIRE -112 -16 -288 -16
WIRE 32 -16 32 -48
WIRE 32 -16 -112 -16
WIRE 96 -16 96 -80
WIRE 96 -16 32 -16
WIRE 272 -16 272 -64
WIRE 448 -16 272 -16
WIRE 592 -16 592 -80
WIRE 592 -16 448 -16
WIRE 672 -16 672 -96
WIRE 672 -16 592 -16
WIRE 864 -16 864 -96
WIRE 864 -16 672 -16
WIRE 992 -16 992 -80
WIRE 992 -16 864 -16
WIRE 320 80 272 80
WIRE 480 80 400 80
WIRE 592 80 560 80
WIRE 672 80 592 80
WIRE 832 80 736 80
WIRE 592 128 592 80
WIRE 272 160 272 80
WIRE 832 160 832 80
WIRE 272 288 272 240
WIRE 448 288 272 288
WIRE 592 288 592 192
WIRE 592 288 448 288
WIRE 832 288 832 240
WIRE 832 288 592 288
FLAG -112 -16 0
FLAG 448 -16 0
FLAG 448 288 0
SYMBOL voltage -288 -160 R0
WINDOW 123 24 124 Left 2
WINDOW 39 0 0 Left 0
SYMATTR Value2 AC 1
SYMATTR InstName V11
SYMATTR Value ""
SYMBOL res -256 -208 R270
WINDOW 0 32 56 VTop 2
WINDOW 3 0 56 VBottom 2
SYMATTR InstName R22
SYMATTR Value 470
SYMBOL voltage 272 -160 R0
WINDOW 123 24 124 Left 2
WINDOW 39 0 0 Left 0
SYMATTR Value2 AC 1
SYMATTR InstName V12
SYMATTR Value ""
SYMBOL res 304 -208 R270
WINDOW 0 32 56 VTop 2
WINDOW 3 0 56 VBottom 2
SYMATTR InstName R24
SYMATTR Value 50
SYMBOL res 976 -176 R0
SYMATTR InstName R25
SYMATTR Value 500
SYMBOL cap 656 -160 R0
SYMATTR InstName C23
SYMATTR Value 470n
SYMBOL ind 704 -208 R270
WINDOW 0 32 56 VTop 2
WINDOW 3 5 56 VBottom 2
SYMATTR InstName L10
SYMATTR Value 10µ
SYMBOL cap 848 -160 R0
SYMATTR InstName C24
SYMATTR Value 470n
SYMBOL cap 80 -144 R0
SYMATTR InstName C7
SYMATTR Value 470p
SYMBOL ind 16 -144 R0
SYMATTR InstName L3
SYMATTR Value 10µ
SYMBOL voltage 272 144 R0
WINDOW 123 24 124 Left 2
WINDOW 39 0 0 Left 0
SYMATTR Value2 AC 1
SYMATTR InstName V1
SYMATTR Value ""
SYMBOL res 304 96 R270
WINDOW 0 32 56 VTop 2
WINDOW 3 0 56 VBottom 2
SYMATTR InstName R1
SYMATTR Value 500
SYMBOL cap 576 128 R0
SYMATTR InstName C1
SYMATTR Value 5n
SYMBOL ind 464 96 R270
WINDOW 0 32 56 VTop 2
WINDOW 3 5 56 VBottom 2
SYMATTR InstName L1
SYMATTR Value 500n
SYMBOL cap 736 64 R90
WINDOW 0 0 32 VBottom 2
WINDOW 3 32 32 VTop 2
SYMATTR InstName C2
SYMATTR Value 680p
SYMBOL res 816 144 R0
SYMATTR InstName R2
SYMATTR Value 10Meg
SYMBOL cap 960 -240 R90
WINDOW 0 0 32 VBottom 2
WINDOW 3 32 32 VTop 2
SYMATTR InstName C3
SYMATTR Value 100p
TEXT -320 312 Left 2 !.ac dec 1k 1 1G
