Version 4
SHEET 1 880 680
WIRE -128 -64 -208 -64
WIRE 96 -64 -48 -64
WIRE 256 -64 96 -64
WIRE 384 -64 256 -64
WIRE 592 -64 384 -64
WIRE 592 -48 592 -64
WIRE 256 -32 256 -64
WIRE 384 -32 384 -64
WIRE 96 0 96 -64
WIRE 592 32 592 16
WIRE 256 64 256 32
WIRE 304 64 256 64
WIRE 336 64 304 64
WIRE 384 64 384 48
WIRE 384 64 336 64
WIRE 416 64 384 64
WIRE 304 80 304 64
WIRE 416 96 416 64
WIRE 96 128 96 80
WIRE 192 128 96 128
WIRE 240 128 192 128
WIRE 96 176 96 128
WIRE 304 208 304 176
WIRE 416 208 416 160
WIRE 416 208 304 208
WIRE 304 240 304 208
WIRE 96 272 96 240
WIRE -112 288 -112 256
WIRE 304 368 304 320
WIRE 304 368 256 368
WIRE 368 368 304 368
WIRE -112 400 -112 368
WIRE 368 416 368 368
WIRE 256 448 256 368
WIRE 256 544 256 512
WIRE 320 544 256 544
WIRE 368 544 368 496
WIRE 368 544 320 544
FLAG 592 32 0
FLAG 320 544 0
FLAG -112 400 0
FLAG -112 256 VCC
FLAG -208 -64 VCC
FLAG 96 272 0
FLAG 368 368 vquench
FLAG 416 208 VE
FLAG 192 128 VB
FLAG 336 64 VC
SYMBOL cap 80 176 R0
SYMATTR InstName C3
SYMATTR Value 47µ
SYMBOL res -32 -80 R90
WINDOW 0 0 56 VBottom 2
WINDOW 3 32 56 VTop 2
SYMATTR InstName R1
SYMATTR Value 470
SYMBOL res 112 96 R180
WINDOW 0 36 76 Left 2
WINDOW 3 36 40 Left 2
SYMATTR InstName R2
SYMATTR Value 560K
SYMBOL npn 240 80 R0
SYMATTR InstName Q1
SYMATTR Value 2N2222
SYMBOL ind 368 -48 R0
SYMATTR InstName L1
SYMATTR Value 500n
SYMBOL cap 240 -32 R0
SYMATTR InstName C1
SYMATTR Value 30p
SYMBOL cap 576 -48 R0
SYMATTR InstName C4
SYMATTR Value 470n
SYMBOL cap 400 96 R0
SYMATTR InstName C2
SYMATTR Value 30p
SYMBOL ind 288 224 R0
SYMATTR InstName L2
SYMATTR Value 47µ
SYMBOL cap 240 448 R0
SYMATTR InstName C5
SYMATTR Value 2.2n
SYMBOL res 352 400 R0
SYMATTR InstName R3
SYMATTR Value 2.2K
SYMBOL voltage -112 272 R0
WINDOW 123 0 0 Left 0
WINDOW 39 0 0 Left 0
SYMATTR InstName V1
SYMATTR Value 5
TEXT -168 520 Left 2 !.tran 0 {10/100K} 0 {.1/33MEG}
